Version 4
SHEET 1 1248 780
WIRE 464 -192 384 -192
WIRE 592 -192 528 -192
WIRE 272 -96 64 -96
WIRE 384 -96 384 -192
WIRE 384 -96 352 -96
WIRE 448 -96 384 -96
WIRE 592 -96 592 -192
WIRE 592 -96 528 -96
WIRE 160 -16 128 -16
WIRE 272 -16 224 -16
WIRE -288 80 -288 64
WIRE -160 80 -160 64
WIRE -32 80 -48 80
WIRE 64 80 64 -96
WIRE 64 80 48 80
WIRE 128 80 128 -16
WIRE 128 80 64 80
WIRE 160 80 128 80
WIRE 272 80 272 -16
WIRE 272 80 240 80
WIRE 128 160 128 144
WIRE -288 192 -288 160
WIRE -160 192 -160 160
WIRE 448 192 448 176
WIRE 64 208 64 80
WIRE 96 208 64 208
WIRE -288 224 -400 224
WIRE 272 240 272 80
WIRE 272 240 240 240
WIRE 288 240 272 240
WIRE 384 240 384 -96
WIRE 384 240 368 240
WIRE 416 240 384 240
WIRE -400 256 -400 224
WIRE -560 272 -640 272
WIRE -512 272 -560 272
WIRE -448 272 -512 272
WIRE -288 272 -288 224
WIRE 0 272 -288 272
WIRE 96 272 0 272
WIRE 592 272 592 -96
WIRE 592 272 560 272
WIRE 624 272 592 272
WIRE 416 304 384 304
WIRE -448 320 -480 320
WIRE 128 336 128 320
WIRE -400 368 -400 336
WIRE -288 368 -400 368
WIRE -240 368 -288 368
WIRE 448 368 448 352
WIRE -640 400 -640 272
WIRE 0 400 -48 400
WIRE 384 400 384 304
WIRE 384 400 0 400
WIRE -400 416 -400 368
WIRE -512 432 -512 272
WIRE -448 432 -512 432
WIRE -480 480 -480 320
WIRE -448 480 -480 480
WIRE -480 512 -480 480
WIRE -400 528 -400 496
WIRE -48 528 -48 400
WIRE -48 528 -400 528
WIRE -640 560 -640 480
FLAG -160 192 0
FLAG 128 144 +V
FLAG -160 64 +V
FLAG 128 336 -V
FLAG -288 192 0
FLAG -288 64 -V
FLAG -48 80 0
FLAG 448 176 +V
FLAG 448 368 -V
FLAG 0 272 IN-
FLAG 0 400 IN+
FLAG 624 272 OUT
FLAG -640 560 0
FLAG -480 512 0
FLAG -240 448 0
FLAG -560 272 Vid
FLAG -288 368 Vicm
SYMBOL voltage -160 64 R0
WINDOW 123 0 0 Left 2
WINDOW 39 0 0 Left 2
SYMATTR InstName V1
SYMATTR Value 15
SYMBOL voltage -288 64 R0
WINDOW 123 0 0 Left 2
WINDOW 39 0 0 Left 2
SYMATTR InstName V2
SYMATTR Value -15
SYMBOL res 256 64 R90
WINDOW 0 0 56 VBottom 2
WINDOW 3 32 56 VTop 2
SYMATTR InstName R1
SYMATTR Value 300K
SYMBOL res 64 64 R90
WINDOW 0 0 56 VBottom 2
WINDOW 3 32 56 VTop 2
SYMATTR InstName R2
SYMATTR Value 100k
SYMBOL res 368 -112 R90
WINDOW 0 0 56 VBottom 2
WINDOW 3 32 56 VTop 2
SYMATTR InstName R3
SYMATTR Value 100k
SYMBOL res 384 224 R90
WINDOW 0 0 56 VBottom 2
WINDOW 3 32 56 VTop 2
SYMATTR InstName R4
SYMATTR Value 300K
SYMBOL res 544 -112 R90
WINDOW 0 0 56 VBottom 2
WINDOW 3 32 56 VTop 2
SYMATTR InstName R5
SYMATTR Value 100k
SYMBOL LTC6081 128 240 R0
SYMATTR InstName U3
SYMBOL LTC6081 448 272 R0
SYMATTR InstName U4
SYMBOL cap 224 -32 R90
WINDOW 0 0 32 VBottom 2
WINDOW 3 32 32 VTop 2
SYMATTR InstName C1
SYMATTR Value 15p
SYMBOL cap 528 -208 R90
WINDOW 0 0 32 VBottom 2
WINDOW 3 32 32 VTop 2
SYMATTR InstName C2
SYMATTR Value 15p
SYMBOL e -400 240 R0
SYMATTR InstName E1
SYMATTR Value -0.5
SYMBOL e -400 400 R0
SYMATTR InstName E2
SYMATTR Value -0.5
SYMBOL voltage -240 352 R0
WINDOW 123 0 0 Left 0
WINDOW 39 0 0 Left 0
SYMATTR InstName Vicm1
SYMATTR Value SINE(0 0.157 2.8k)
SYMBOL voltage -640 384 R0
WINDOW 3 -88 150 Left 2
WINDOW 123 0 0 Left 0
WINDOW 39 0 0 Left 0
SYMATTR Value PULSE(-10 10 100u 500n 500n 100u 1m 2)
SYMATTR InstName Vid1
TEXT 128 -232 Bottom 2 ;LTC6081 - Precision Dual CMOS Rail-to-Rail Input/Output Amplifiers\nTwo Op Amp Instrumentation Amplifier
TEXT 600 448 Left 2 !;tran 2.5
TEXT 600 480 Left 2 !.FOUR 2.8khz 15 V(OUT)
TEXT 600 400 Left 2 !.op
TEXT 592 424 Left 2 !.tran 0 0.3m 0
