Version 4
SHEET 1 1000 680
WIRE -48 160 -128 160
WIRE 160 160 112 160
WIRE 192 160 160 160
WIRE 384 160 352 160
WIRE 400 160 384 160
WIRE 640 160 608 160
WIRE 656 160 640 160
WIRE 944 160 864 160
FLAG -128 240 0
FLAG 944 160 out
FLAG 160 160 OUT1
FLAG 384 160 OUT2
FLAG 640 160 OUT3
SYMBOL et1 32 160 R0
SYMATTR InstName etaj1
SYMBOL ET2 272 160 R0
SYMATTR InstName etaj2
SYMBOL et3 496 160 R0
SYMATTR InstName etaj3
SYMBOL et4 752 160 R0
SYMATTR InstName etaj4
SYMBOL voltage -128 144 R0
WINDOW 123 24 124 Left 2
WINDOW 39 0 0 Left 0
SYMATTR Value2 AC 1
SYMATTR InstName V1
SYMATTR Value SINE(0  62.6m 2.8k)
TEXT -88 48 Left 2 !;ac dec 10 1 10Meg
TEXT -88 16 Left 2 !.tran 5m
