Version 4
SHEET 1 1976 2316
WIRE -1392 -368 -1392 -384
WIRE -1392 -272 -1392 -368
WIRE -1296 -256 -1296 -336
WIRE -1008 -240 -1008 -304
WIRE -864 -240 -864 -304
WIRE -736 -240 -736 -304
WIRE -592 -240 -592 -304
WIRE -1008 -128 -1008 -160
WIRE -864 -128 -864 -160
WIRE -736 -128 -736 -160
WIRE -592 -128 -592 -160
WIRE -1296 -112 -1296 -176
WIRE -1392 -96 -1392 -192
WIRE -848 16 -848 -48
WIRE -848 144 -848 96
WIRE -704 336 -992 336
WIRE -400 336 -512 336
WIRE -384 336 -400 336
WIRE -224 336 -320 336
WIRE -992 672 -992 336
WIRE -704 672 -992 672
WIRE -224 672 -224 336
WIRE -224 672 -512 672
WIRE -112 672 -224 672
WIRE 112 672 -32 672
WIRE -992 1008 -992 672
WIRE -720 1008 -992 1008
WIRE -704 1008 -720 1008
WIRE 112 1008 112 672
WIRE 112 1008 -528 1008
WIRE 192 1008 112 1008
WIRE 368 1008 272 1008
WIRE -992 1408 -992 1008
WIRE -704 1408 -992 1408
WIRE 368 1408 368 1008
WIRE 368 1408 -512 1408
WIRE 480 1408 368 1408
WIRE 688 1408 560 1408
WIRE -992 1712 -992 1408
WIRE -704 1712 -992 1712
WIRE 688 1712 688 1408
WIRE 688 1712 -512 1712
WIRE 752 1712 688 1712
WIRE 1024 1712 832 1712
WIRE -1472 2032 -1568 2032
WIRE -992 2032 -992 1712
WIRE -992 2032 -1392 2032
WIRE -672 2032 -992 2032
WIRE -224 2048 -608 2048
WIRE 1024 2048 1024 1712
WIRE 1024 2048 -224 2048
WIRE -672 2064 -752 2064
WIRE -752 2192 -752 2064
FLAG -1296 -112 0
FLAG -1296 -336 VDD
FLAG -1392 -368 VSS
FLAG -1008 -128 0
FLAG -1008 -304 S1
FLAG -864 -128 0
FLAG -864 -304 S2
FLAG -736 -128 0
FLAG -736 -304 S3
FLAG -592 -128 0
FLAG -592 -304 S4
FLAG -1392 -96 0
FLAG -1568 2032 0
FLAG -752 2272 0
FLAG -640 2016 VDD
FLAG -640 2080 VSS
FLAG -848 144 0
FLAG -848 -48 S5
FLAG -224 2048 OUT
FLAG -544 1888 0
FLAG -544 1584 0
FLAG -560 1184 0
FLAG -544 848 0
FLAG -544 512 0
FLAG -672 1888 VSS
FLAG -672 1584 VSS
FLAG -688 1184 VSS
FLAG -672 848 VSS
FLAG -672 512 VSS
FLAG -608 256 VDD
FLAG -608 592 VDD
FLAG -624 928 VDD
FLAG -608 1328 VDD
FLAG -608 1632 VDD
FLAG -704 1776 S1
FLAG -704 1472 S2
FLAG -720 1072 S3
FLAG -704 736 S4
FLAG -704 400 S5
DATAFLAG -448 336 ""
SYMBOL voltage -1296 -272 R0
WINDOW 123 0 0 Left 2
WINDOW 39 0 0 Left 2
SYMATTR InstName V2
SYMATTR Value 15
SYMBOL voltage -1008 -256 R0
WINDOW 123 0 0 Left 2
WINDOW 39 0 0 Left 2
SYMATTR InstName V4
SYMATTR Value 0
SYMBOL voltage -864 -256 R0
WINDOW 123 0 0 Left 2
WINDOW 39 0 0 Left 2
SYMATTR InstName V5
SYMATTR Value 0
SYMBOL voltage -736 -256 R0
WINDOW 123 0 0 Left 2
WINDOW 39 0 0 Left 2
SYMATTR InstName V6
SYMATTR Value 0
SYMBOL voltage -592 -256 R0
WINDOW 123 0 0 Left 2
WINDOW 39 0 0 Left 2
SYMATTR InstName V7
SYMATTR Value 0
SYMBOL voltage -752 2176 R0
WINDOW 123 24 124 Left 2
WINDOW 39 0 0 Left 2
WINDOW 3 24 44 Left 2
SYMATTR Value2 AC 1
SYMATTR Value SINE(0 0.113 2.8k)
SYMATTR InstName Vin
SYMBOL voltage -1392 -288 R0
WINDOW 123 0 0 Left 0
WINDOW 39 0 0 Left 0
SYMATTR InstName V3
SYMATTR Value -15
SYMBOL OpAmps\\LT1679 -640 2048 R0
WINDOW 3 39 79 Left 2
SYMATTR InstName U1
SYMBOL res -16 656 R90
WINDOW 0 0 56 VBottom 2
WINDOW 3 32 56 VTop 2
SYMATTR InstName R2
SYMATTR Value 16.2k
SYMBOL res 288 992 R90
WINDOW 0 0 56 VBottom 2
WINDOW 3 32 56 VTop 2
SYMATTR InstName R3
SYMATTR Value 11.8k
SYMBOL res 576 1392 R90
WINDOW 0 0 56 VBottom 2
WINDOW 3 32 56 VTop 2
SYMATTR InstName R4
SYMATTR Value 8.2k
SYMBOL res 848 1696 R90
WINDOW 0 0 56 VBottom 2
WINDOW 3 32 56 VTop 2
SYMATTR InstName R5
SYMATTR Value 10k
SYMBOL res -1376 2016 R90
WINDOW 0 0 56 VBottom 2
WINDOW 3 32 56 VTop 2
SYMATTR InstName R6
SYMATTR Value 10k
SYMBOL res -304 320 R90
WINDOW 0 0 56 VBottom 2
WINDOW 3 32 56 VTop 2
SYMATTR InstName R1
SYMATTR Value 24k
SYMBOL voltage -848 0 R0
WINDOW 123 0 0 Left 0
WINDOW 39 0 0 Left 0
SYMATTR InstName V8
SYMATTR Value 15
SYMBOL Switches\\ADG1212 -608 1760 R0
SYMATTR InstName U7
SYMBOL Switches\\ADG1212 -608 1456 R0
SYMATTR InstName U2
SYMBOL Switches\\ADG1212 -624 1056 R0
SYMATTR InstName U3
SYMBOL Switches\\ADG1212 -608 720 R0
SYMATTR InstName U4
SYMBOL Switches\\ADG1212 -608 384 R0
SYMATTR InstName U5
TEXT -440 -256 Left 2 !;ac dec 100 1 10Meg
TEXT -440 -216 Left 2 !.op
TEXT -128 -32 Left 2 !.tran 5m
TEXT -152 -232 Left 2 !.OPTIONS plotwinsize=0
TEXT -144 -200 Left 2 ;To disable compression
TEXT -144 -168 Left 2 !.OPTIONS numdgt=7
TEXT -144 -136 Left 2 ;To switch to double precision math\non dependent variables
TEXT -448 -296 Left 2 !.lib tsmc180nmcmos.lib
TEXT -448 -472 Left 2 !.meas AC Rin FIND Rintrare() AT 1
TEXT -448 -440 Left 2 !.func Rintrare() V(in)/I(Vin)
TEXT -448 -400 Left 2 !.FOUR 2.8kHz 15 V(OUT)
TEXT -448 -368 Left 2 !.OPTIONS plotwinsize=0
TEXT -440 -336 Left 2 ;To disable compression
TEXT -432 -176 Left 2 ;;dc Vin 0 1.8 1m
